[TITLE]
;;Project Title/Notes

[OPTIONS]
;;Option             Value
FLOW_UNITS           CMS
INFILTRATION         MODIFIED_GREEN_AMPT
FLOW_ROUTING         KINWAVE
LINK_OFFSETS         DEPTH
MIN_SLOPE            0
ALLOW_PONDING        NO
SKIP_STEADY_STATE    NO

START_DATE           06/17/2022
START_TIME           00:00:00
REPORT_START_DATE    06/17/2022
REPORT_START_TIME    00:00:00
END_DATE             06/17/2022
END_TIME             12:00:00
SWEEP_START          01/01
SWEEP_END            12/31
DRY_DAYS             0
REPORT_STEP          00:15:00
WET_STEP             00:05:00
DRY_STEP             01:00:00
ROUTING_STEP         0:01:00 
RULE_STEP            00:00:00

INERTIAL_DAMPING     PARTIAL
NORMAL_FLOW_LIMITED  BOTH
FORCE_MAIN_EQUATION  H-W
VARIABLE_STEP        0.75
LENGTHENING_STEP     0
MIN_SURFAREA         1.167
MAX_TRIALS           8
HEAD_TOLERANCE       0.0015
SYS_FLOW_TOL         5
LAT_FLOW_TOL         5
MINIMUM_STEP         0.5
THREADS              1

[EVAPORATION]
;;Data Source    Parameters
;;-------------- ----------------
CONSTANT         0.0
DRY_ONLY         NO

[RAINGAGES]
;;Name           Format    Interval SCF      Source    
;;-------------- --------- ------ ------ ----------
Raingage2        INTENSITY 0:01     1.0      TIMESERIES test_series     

[SUBCATCHMENTS]
;;Name           Rain Gage        Outlet           Area     %Imperv  Width    %Slope   CurbLen  SnowPack        
;;-------------- ---------------- ---------------- -------- -------- -------- -------- -------- ----------------
S1               Raingage2        O1               0.5      20.0     300.0    5.0      0                        
S2               Raingage2        O1               1.58     45.0     125.7    5.09     0                        
S3               Raingage2        O1               0.79     5.09     88.88    15.0     0                        
S4               Raingage2        O1               0.6      15.0     77.46    30.0     0                        
S5               Raingage2        O1               1.45     22.5     120.42   15.0     0                        
S6               Raingage2        O1               0.74     10.0     86.02    5.09     0                        
S7               Raingage2        O1               1.19     5.09     109.09   10.0     0                        
S8               Raingage2        O1               1.2      15.0     109.54   30.0     0                        
S9               Raingage2        O1               0.92     45.0     95.92    5.09     0                        
S10              Raingage2        O1               1.87     45.0     136.75   15.0     0                        
S11              Raingage2        O1               1.12     30.0     105.83   2.33     0                        
S12              Raingage2        O1               0.15     5.09     38.73    15.0     0                        
S13              Raingage2        O1               1.6      10.0     126.49   20.0     0                        
S14              Raingage2        O1               1.85     2.33     136.01   2.33     0                        
S15              Raingage2        O1               1.59     45.0     126.1    5.09     0                        
S16              Raingage2        O1               1.32     30.0     114.89   10.0     0                        
S17              Raingage2        O1               0.33     15.0     57.45    30.0     0                        
S18              Raingage2        O1               1.76     5.09     132.66   10.0     0                        
S19              Raingage2        O1               1.19     22.5     109.09   5.09     0                        
S20              Raingage2        O1               0.52     45.0     72.11    5.09     0                        
S21              Raingage2        O1               1.07     10.0     103.44   5.09     0                        
S22              Raingage2        O1               1.97     10.0     140.36   5.09     0                        
S23              Raingage2        O1               1.24     22.5     111.36   5.09     0                        
S24              Raingage2        O1               0.57     65.0     75.5     61.67    0                        
S25              Raingage2        O1               0.04     22.5     20.0     15.0     0                        
S26              Raingage2        O1               0.17     30.0     41.23    5.09     0                        
S27              Raingage2        O1               1.94     30.0     139.28   10.0     0                        
S28              Raingage2        O1               0.53     15.0     72.8     10.0     0                        
S29              Raingage2        O1               1.21     5.09     110.0    10.0     0                        
S30              Raingage2        O1               1.83     45.0     135.28   10.0     0                        
S31              Raingage2        O1               0.07     45.0     26.46    10.0     0                        
S32              Raingage2        O1               0.99     10.0     99.5     15.0     0                        
S33              Raingage2        O1               0.69     45.0     83.07    5.09     0                        
S34              Raingage2        O1               1.37     10.0     117.05   20.0     0                        
S35              Raingage2        O1               1.88     65.0     137.11   61.67    0                        
S36              Raingage2        O1               0.75     22.5     86.6     2.33     0                        
S37              Raingage2        O1               1.12     15.0     105.83   5.09     0                        
S38              Raingage2        O1               0.78     15.0     88.32    5.09     0                        
S39              Raingage2        O1               1.71     2.33     130.77   2.33     0                        
S40              Raingage2        O1               1.13     45.0     106.3    15.0     0                        
S41              Raingage2        O1               0.98     10.0     98.99    2.33     0                        
S42              Raingage2        O1               1.7      65.0     130.38   61.67    0                        
S43              Raingage2        O1               1.97     45.0     140.36   2.33     0                        
S44              Raingage2        O1               1.65     15.0     128.45   30.0     0                        
S45              Raingage2        O1               1.13     30.0     106.3    10.0     0                        
S46              Raingage2        O1               1.16     15.0     107.7    10.0     0                        
S47              Raingage2        O1               1.89     22.5     137.48   15.0     0                        
S48              Raingage2        O1               1.66     5.09     128.84   15.0     0                        
S49              Raingage2        O1               1.79     45.0     133.79   10.0     0                        
S50              Raingage2        O1               1.96     22.5     140.0    5.09     0                        
S51              Raingage2        O1               1.25     65.0     111.8    61.67    0                        
S52              Raingage2        O1               0.29     10.0     53.85    20.0     0                        
S53              Raingage2        O1               0.34     2.33     58.31    2.33     0                        
S54              Raingage2        O1               0.56     30.0     74.83    15.0     0                        
S55              Raingage2        O1               1.45     5.09     120.42   15.0     0                        
S56              Raingage2        O1               0.03     15.0     17.32    5.09     0                        
S57              Raingage2        O1               1.78     10.0     133.42   20.0     0                        
S58              Raingage2        O1               0.67     22.5     81.85    5.09     0                        
S59              Raingage2        O1               0.1      10.0     31.62    2.33     0                        
S60              Raingage2        O1               0.5      2.33     70.71    2.33     0                        
S61              Raingage2        O1               1.13     15.0     106.3    10.0     0                        
S62              Raingage2        O1               0.35     15.0     59.16    10.0     0                        
S63              Raingage2        O1               0.02     22.5     14.14    5.09     0                        
S64              Raingage2        O1               1.74     10.0     131.91   20.0     0                        
S65              Raingage2        O1               0.04     2.33     20.0     2.33     0                        
S66              Raingage2        O1               0.23     10.0     47.96    5.09     0                        
S67              Raingage2        O1               1.34     30.0     115.76   5.09     0                        
S68              Raingage2        O1               0.11     10.0     33.17    20.0     0                        
S69              Raingage2        O1               1.69     45.0     130.0    5.09     0                        
S70              Raingage2        O1               1.52     65.0     123.29   61.67    0                        
S71              Raingage2        O1               0.72     15.0     84.85    5.09     0                        
S72              Raingage2        O1               0.21     45.0     45.83    10.0     0                        
S73              Raingage2        O1               0.54     5.09     73.48    15.0     0                        
S74              Raingage2        O1               0.37     83.33    60.83    45.0     0                        
S75              Raingage2        O1               0.72     45.0     84.85    10.0     0                        
S76              Raingage2        O1               1.94     83.33    139.28   45.0     0                        
S77              Raingage2        O1               0.26     15.0     50.99    10.0     0                        
S78              Raingage2        O1               0.65     15.0     80.62    5.09     0                        
S79              Raingage2        O1               0.49     45.0     70.0     15.0     0                        
S80              Raingage2        O1               0.85     15.0     92.2     10.0     0                        
S81              Raingage2        O1               0.32     10.0     56.57    2.33     0                        
S82              Raingage2        O1               0.65     22.5     80.62    5.09     0                        
S83              Raingage2        O1               1.46     65.0     120.83   61.67    0                        
S84              Raingage2        O1               0.56     45.0     74.83    5.09     0                        
S85              Raingage2        O1               0.79     83.33    88.88    45.0     0                        
S86              Raingage2        O1               0.27     5.09     51.96    10.0     0                        
S87              Raingage2        O1               1.84     30.0     135.65   10.0     0                        
S88              Raingage2        O1               1.8      5.09     134.16   15.0     0                        
S89              Raingage2        O1               1.89     22.5     137.48   2.33     0                        
S90              Raingage2        O1               1.26     10.0     112.25   5.09     0                        
S91              Raingage2        O1               1.58     10.0     125.7    15.0     0                        
S92              Raingage2        O1               1.0      5.09     100.0    10.0     0                        
S93              Raingage2        O1               0.14     83.33    37.42    45.0     0                        
S94              Raingage2        O1               1.39     5.09     117.9    10.0     0                        
S95              Raingage2        O1               1.9      10.0     137.84   20.0     0                        
S96              Raingage2        O1               1.07     10.0     103.44   20.0     0                        
S97              Raingage2        O1               1.09     5.09     104.4    15.0     0                        
S98              Raingage2        O1               1.97     45.0     140.36   10.0     0                        
S99              Raingage2        O1               1.68     65.0     129.61   61.67    0                        
S100             Raingage2        O1               1.71     45.0     130.77   10.0     0                        
S101             Raingage2        O1               0.94     22.5     96.95    5.09     0                        
S102             Raingage2        O1               1.56     22.5     124.9    2.33     0                        
S103             Raingage2        O1               1.92     5.09     138.56   15.0     0                        
S104             Raingage2        O1               1.81     10.0     134.54   15.0     0                        
S105             Raingage2        O1               1.71     10.0     130.77   5.09     0                        
S106             Raingage2        O1               0.61     2.33     78.1     2.33     0                        
S107             Raingage2        O1               1.1      45.0     104.88   2.33     0                        
S108             Raingage2        O1               1.11     15.0     105.36   10.0     0                        
S109             Raingage2        O1               1.44     15.0     120.0    10.0     0                        
S110             Raingage2        O1               1.76     10.0     132.66   15.0     0                        
S111             Raingage2        O1               1.21     22.5     110.0    2.33     0                        
S112             Raingage2        O1               1.37     30.0     117.05   10.0     0                        
S113             Raingage2        O1               0.85     15.0     92.2     5.09     0                        
S114             Raingage2        O1               0.88     5.09     93.81    10.0     0                        
S115             Raingage2        O1               1.5      65.0     122.47   61.67    0                        
S116             Raingage2        O1               0.35     2.33     59.16    2.33     0                        
S117             Raingage2        O1               1.88     22.5     137.11   2.33     0                        
S118             Raingage2        O1               1.03     5.09     101.49   15.0     0                        
S119             Raingage2        O1               0.36     83.33    60.0     45.0     0                        
S120             Raingage2        O1               0.61     15.0     78.1     10.0     0                        
S121             Raingage2        O1               0.32     10.0     56.57    5.09     0                        
S122             Raingage2        O1               0.56     22.5     74.83    5.09     0                        
S123             Raingage2        O1               1.37     22.5     117.05   15.0     0                        
S124             Raingage2        O1               0.04     10.0     20.0     20.0     0                        
S125             Raingage2        O1               1.5      5.09     122.47   15.0     0                        
S126             Raingage2        O1               0.93     45.0     96.44    15.0     0                        
S127             Raingage2        O1               1.58     5.09     125.7    10.0     0                        
S128             Raingage2        O1               1.41     22.5     118.74   2.33     0                        
S129             Raingage2        O1               0.53     5.09     72.8     15.0     0                        
S130             Raingage2        O1               0.43     2.33     65.57    2.33     0                        
S131             Raingage2        O1               1.14     10.0     106.77   5.09     0                        
S132             Raingage2        O1               0.7      2.33     83.67    2.33     0                        
S133             Raingage2        O1               1.84     15.0     135.65   10.0     0                        
S134             Raingage2        O1               1.12     15.0     105.83   10.0     0                        
S135             Raingage2        O1               1.14     15.0     106.77   30.0     0                        
S136             Raingage2        O1               0.11     15.0     33.17    30.0     0                        
S137             Raingage2        O1               0.66     30.0     81.24    10.0     0                        
S138             Raingage2        O1               1.23     5.09     110.91   10.0     0                        
S139             Raingage2        O1               1.1      65.0     104.88   61.67    0                        
S140             Raingage2        O1               1.97     2.33     140.36   2.33     0                        
S141             Raingage2        O1               1.0      5.09     100.0    10.0     0                        
S142             Raingage2        O1               1.95     30.0     139.64   10.0     0                        
S143             Raingage2        O1               1.07     15.0     103.44   10.0     0                        
S144             Raingage2        O1               1.67     15.0     129.23   10.0     0                        
S145             Raingage2        O1               0.45     5.09     67.08    15.0     0                        
S146             Raingage2        O1               0.4      15.0     63.25    10.0     0                        
S147             Raingage2        O1               1.16     22.5     107.7    10.0     0                        
S148             Raingage2        O1               1.44     15.0     120.0    30.0     0                        
S149             Raingage2        O1               0.17     22.5     41.23    10.0     0                        
S150             Raingage2        O1               0.17     22.5     41.23    2.33     0                        
S151             Raingage2        O1               0.59     22.5     76.81    5.09     0                        
S152             Raingage2        O1               0.48     10.0     69.28    15.0     0                        
S153             Raingage2        O1               0.69     15.0     83.07    10.0     0                        
S154             Raingage2        O1               0.85     30.0     92.2     15.0     0                        
S155             Raingage2        O1               0.3      30.0     54.77    15.0     0                        
S156             Raingage2        O1               1.43     30.0     119.58   5.09     0                        
S157             Raingage2        O1               0.96     2.33     97.98    2.33     0                        
S158             Raingage2        O1               1.35     10.0     116.19   5.09     0                        
S159             Raingage2        O1               0.7      15.0     83.67    10.0     0                        
S160             Raingage2        O1               1.07     5.09     103.44   15.0     0                        
S161             Raingage2        O1               0.58     22.5     76.16    15.0     0                        
S162             Raingage2        O1               0.86     15.0     92.74    5.09     0                        
S163             Raingage2        O1               1.77     10.0     133.04   2.33     0                        
S164             Raingage2        O1               1.91     15.0     138.2    10.0     0                        
S165             Raingage2        O1               1.31     5.09     114.46   15.0     0                        
S166             Raingage2        O1               0.78     15.0     88.32    5.09     0                        
S167             Raingage2        O1               0.07     10.0     26.46    5.09     0                        
S168             Raingage2        O1               0.77     10.0     87.75    20.0     0                        
S169             Raingage2        O1               0.96     22.5     97.98    2.33     0                        
S170             Raingage2        O1               0.02     10.0     14.14    5.09     0                        
S171             Raingage2        O1               0.93     22.5     96.44    10.0     0                        
S172             Raingage2        O1               0.07     15.0     26.46    10.0     0                        
S173             Raingage2        O1               1.0      15.0     100.0    10.0     0                        
S174             Raingage2        O1               0.6      83.33    77.46    45.0     0                        
S175             Raingage2        O1               0.96     30.0     97.98    10.0     0                        
S176             Raingage2        O1               0.17     45.0     41.23    2.33     0                        
S177             Raingage2        O1               0.38     10.0     61.64    20.0     0                        
S178             Raingage2        O1               0.24     22.5     48.99    5.09     0                        
S179             Raingage2        O1               1.5      2.33     122.47   2.33     0                        
S180             Raingage2        O1               1.21     5.09     110.0    10.0     0                        
S181             Raingage2        O1               1.25     5.09     111.8    15.0     0                        
S182             Raingage2        O1               1.61     5.09     126.89   15.0     0                        
S183             Raingage2        O1               0.35     10.0     59.16    15.0     0                        
S184             Raingage2        O1               0.99     65.0     99.5     61.67    0                        
S185             Raingage2        O1               1.57     30.0     125.3    5.09     0                        
S186             Raingage2        O1               1.9      15.0     137.84   10.0     0                        
S187             Raingage2        O1               0.3      10.0     54.77    20.0     0                        
S188             Raingage2        O1               0.12     10.0     34.64    2.33     0                        
S189             Raingage2        O1               0.34     10.0     58.31    2.33     0                        
S190             Raingage2        O1               1.11     5.09     105.36   15.0     0                        
S191             Raingage2        O1               0.16     10.0     40.0     5.09     0                        
S192             Raingage2        O1               1.13     15.0     106.3    10.0     0                        
S193             Raingage2        O1               0.32     5.09     56.57    15.0     0                        
S194             Raingage2        O1               1.45     2.33     120.42   2.33     0                        
S195             Raingage2        O1               1.96     10.0     140.0    5.09     0                        
S196             Raingage2        O1               0.43     10.0     65.57    20.0     0                        
S197             Raingage2        O1               1.63     45.0     127.67   10.0     0                        
S198             Raingage2        O1               1.35     15.0     116.19   5.09     0                        
S199             Raingage2        O1               1.53     15.0     123.69   10.0     0                        
S200             Raingage2        O1               1.25     10.0     111.8    5.09     0                        
S201             Raingage2        O1               1.96     5.09     140.0    10.0     0                        
S202             Raingage2        O1               1.64     22.5     128.06   5.09     0                        
S203             Raingage2        O1               1.13     30.0     106.3    2.33     0                        
S204             Raingage2        O1               1.06     65.0     102.96   61.67    0                        
S205             Raingage2        O1               0.7      15.0     83.67    10.0     0                        
S206             Raingage2        O1               1.56     5.09     124.9    15.0     0                        
S207             Raingage2        O1               0.6      5.09     77.46    10.0     0                        
S208             Raingage2        O1               1.55     5.09     124.5    10.0     0                        
S209             Raingage2        O1               0.33     83.33    57.45    45.0     0                        
S210             Raingage2        O1               0.28     5.09     52.92    10.0     0                        
S211             Raingage2        O1               1.3      83.33    114.02   45.0     0                        
S212             Raingage2        O1               0.58     15.0     76.16    30.0     0                        
S213             Raingage2        O1               0.86     10.0     92.74    20.0     0                        
S214             Raingage2        O1               0.15     15.0     38.73    30.0     0                        
S215             Raingage2        O1               0.67     65.0     81.85    61.67    0                        
S216             Raingage2        O1               1.36     65.0     116.62   61.67    0                        
S217             Raingage2        O1               0.67     10.0     81.85    5.09     0                        
S218             Raingage2        O1               0.16     22.5     40.0     2.33     0                        
S219             Raingage2        O1               0.4      10.0     63.25    5.09     0                        
S220             Raingage2        O1               0.95     30.0     97.47    2.33     0                        
S221             Raingage2        O1               0.52     45.0     72.11    10.0     0                        
S222             Raingage2        O1               0.89     30.0     94.34    15.0     0                        
S223             Raingage2        O1               1.47     5.09     121.24   10.0     0                        
S224             Raingage2        O1               1.9      45.0     137.84   5.09     0                        
S225             Raingage2        O1               1.49     10.0     122.07   20.0     0                        
S226             Raingage2        O1               1.92     15.0     138.56   10.0     0                        
S227             Raingage2        O1               0.46     2.33     67.82    2.33     0                        
S228             Raingage2        O1               0.08     22.5     28.28    2.33     0                        
S229             Raingage2        O1               1.83     22.5     135.28   10.0     0                        
S230             Raingage2        O1               0.9      15.0     94.87    10.0     0                        
S231             Raingage2        O1               0.32     22.5     56.57    10.0     0                        
S232             Raingage2        O1               0.5      30.0     70.71    2.33     0                        
S233             Raingage2        O1               1.58     5.09     125.7    15.0     0                        
S234             Raingage2        O1               0.6      10.0     77.46    5.09     0                        
S235             Raingage2        O1               1.29     30.0     113.58   10.0     0                        
S236             Raingage2        O1               0.09     22.5     30.0     10.0     0                        
S237             Raingage2        O1               0.26     45.0     50.99    15.0     0                        
S238             Raingage2        O1               0.58     10.0     76.16    20.0     0                        
S239             Raingage2        O1               0.64     22.5     80.0     10.0     0                        
S240             Raingage2        O1               0.99     65.0     99.5     61.67    0                        
S241             Raingage2        O1               0.68     45.0     82.46    10.0     0                        
S242             Raingage2        O1               0.95     10.0     97.47    5.09     0                        
S243             Raingage2        O1               0.91     10.0     95.39    5.09     0                        
S244             Raingage2        O1               1.29     5.09     113.58   10.0     0                        
S245             Raingage2        O1               1.38     5.09     117.47   10.0     0                        
S246             Raingage2        O1               1.86     83.33    136.38   45.0     0                        
S247             Raingage2        O1               1.55     30.0     124.5    10.0     0                        
S248             Raingage2        O1               1.76     15.0     132.66   30.0     0                        
S249             Raingage2        O1               0.96     10.0     97.98    20.0     0                        
S250             Raingage2        O1               1.23     10.0     110.91   5.09     0                        
S251             Raingage2        O1               0.46     15.0     67.82    5.09     0                        